Global frequency set at 1000000000000 ticks per second
gem5 Simulator System.  https://www.gem5.org
gem5 is copyrighted software; use the --copyright option for details.

gem5 version 25.0.0.1
gem5 compiled Sep 25 2025 13:36:37
gem5 started Nov  1 2025 17:07:49
gem5 executing on instance-20250924-154944, pid 989471
command line: /home/xenon/gem5Sim/gem5/build/ALL/gem5.opt -d /home/xenon/gem5-pipeline/results/test_bwaves /home/xenon/gem5Sim/gem5/configs/deprecated/example/se.py --cmd /home/xenon/gem5-pipeline/cpu2006/bwaves/bwaves --options /home/xenon/gem5-pipeline/cpu2006/bwaves/bwaves.in --l1d_assoc 2 --l1d_size 16kB --l1i_assoc 2 --l1i_size 16kB --l2_assoc 4 --caches --l2cache --l2_size 128kB --l3_assoc 8 --l3_size 1MB --cpu-clock 2GHz --cpu-type X86O3CPU --mem-size 2048MB --mem-type DDR3_1600_8x8 --fast-forward 100000000 --maxinsts 100000000 --sys-clock 1GHz

Switch at instruction count:100000000
Switched CPUS @ tick 355623500
switching cpus
**** REAL SIMULATION ****
